Version 4
SHEET 1 880 680
WIRE 336 -176 208 -176
WIRE 592 -176 336 -176
WIRE 208 -144 208 -176
WIRE 336 -144 336 -176
WIRE 224 -48 208 -48
WIRE 336 -48 336 -64
WIRE 336 -48 304 -48
WIRE 336 -16 336 -48
WIRE -64 0 -96 0
WIRE 16 0 0 0
WIRE 208 0 208 -48
WIRE 208 0 96 0
WIRE -96 32 -96 0
WIRE 208 32 208 0
WIRE 272 32 208 32
WIRE 208 64 208 32
WIRE 592 64 592 -176
WIRE 336 112 336 80
WIRE 64 192 64 144
WIRE 64 192 -96 192
WIRE 208 192 208 144
WIRE 208 192 64 192
WIRE 336 192 208 192
WIRE 592 192 592 144
WIRE 592 192 336 192
FLAG 592 192 0
SYMBOL 2sc3357 272 -16 R0
SYMATTR InstName U1
SYMBOL voltage 592 48 R0
WINDOW 123 0 0 Left 2
WINDOW 39 0 0 Left 2
SYMATTR InstName V1
SYMATTR Value 5
SYMBOL res 320 -160 R0
SYMATTR InstName R1
SYMATTR Value 100
SYMBOL voltage -96 96 R0
WINDOW 0 -75 56 Left 2
WINDOW 3 -218 107 Left 2
WINDOW 123 -218 135 Left 2
WINDOW 39 0 0 Left 2
SYMATTR InstName V2
SYMATTR Value SINE(0 0.02 81e6)
SYMATTR Value2 AC 2
SYMBOL res 192 48 R0
SYMATTR InstName R4
SYMATTR Value 680
SYMBOL res 320 96 R0
SYMATTR InstName R2
SYMATTR Value 10
SYMBOL res 112 -16 R90
WINDOW 0 0 56 VBottom 2
WINDOW 3 32 56 VTop 2
SYMATTR InstName R5
SYMATTR Value 68
SYMBOL voltage -96 16 R0
WINDOW 0 -75 56 Left 2
WINDOW 3 -240 84 Left 2
WINDOW 123 -190 51 Left 2
WINDOW 39 0 0 Left 2
SYMATTR InstName V3
SYMATTR Value SINE(0 0.02 80e6)
SYMBOL cap 0 -16 R90
WINDOW 0 0 32 VBottom 2
WINDOW 3 32 32 VTop 2
SYMATTR InstName C2
SYMATTR Value 100n
SYMBOL res 320 -64 R90
WINDOW 0 0 56 VBottom 2
WINDOW 3 32 56 VTop 2
SYMATTR InstName R3
SYMATTR Value 680
TEXT -24 240 Left 2 !.inc C:\\Program Files\\LTC\\LTspiceIV\\lib\\sub\\2sc3357.sub
TEXT 152 296 Left 2 !;ac oct 10 100 500000k
TEXT -160 320 Left 2 !.tran 0 20u 0 50p
