Version 4
SHEET 1 880 680
WIRE -704 -192 -928 -192
WIRE -560 -192 -704 -192
WIRE -352 -192 -560 -192
WIRE -160 -192 -352 -192
WIRE 80 -192 -160 -192
WIRE 272 -192 80 -192
WIRE 512 -192 272 -192
WIRE -704 -160 -704 -192
WIRE -560 -160 -560 -192
WIRE -352 -144 -352 -192
WIRE 80 -144 80 -192
WIRE -704 -48 -704 -80
WIRE -560 -48 -560 -80
WIRE -352 -48 -352 -64
WIRE -320 -48 -352 -48
WIRE -160 -48 -160 -112
WIRE -160 -48 -176 -48
WIRE -48 -48 -160 -48
WIRE 80 -48 80 -64
WIRE 112 -48 80 -48
WIRE 272 -48 272 -112
WIRE 272 -48 256 -48
WIRE -1184 0 -1248 0
WIRE -800 0 -1104 0
WIRE -560 0 -560 -48
WIRE -480 0 -560 0
WIRE -160 0 -160 -48
WIRE 272 0 272 -48
WIRE -560 16 -560 0
WIRE -560 32 -560 16
WIRE -800 48 -800 0
WIRE -768 48 -800 48
WIRE -704 48 -704 -48
WIRE -400 48 -400 0
WIRE -320 48 -320 -48
WIRE -320 48 -336 48
WIRE -224 48 -320 48
WIRE -48 48 -48 -48
WIRE 112 48 112 -48
WIRE 112 48 96 48
WIRE 208 48 112 48
WIRE 512 48 512 -192
WIRE -704 64 -704 48
WIRE -624 64 -704 64
WIRE -1248 96 -1248 80
WIRE -560 176 -560 112
WIRE -560 176 -1248 176
WIRE -160 176 -160 96
WIRE -160 176 -560 176
WIRE 272 176 272 96
WIRE 272 176 -160 176
WIRE 512 176 512 128
WIRE 512 176 272 176
FLAG 512 176 0
SYMBOL voltage 512 32 R0
WINDOW 123 0 0 Left 2
WINDOW 39 0 0 Left 2
SYMATTR InstName V1
SYMATTR Value 5
SYMBOL res 256 -208 R0
SYMATTR InstName R1
SYMATTR Value 100
SYMBOL res 64 -160 R0
SYMATTR InstName R2
SYMATTR Value 22k
SYMBOL cap 176 -64 R90
WINDOW 0 0 32 VBottom 2
WINDOW 3 32 32 VTop 2
SYMATTR InstName C1
SYMATTR Value 100n
SYMBOL res 272 -64 R90
WINDOW 0 0 56 VBottom 2
WINDOW 3 32 56 VTop 2
SYMATTR InstName R3
SYMATTR Value 330
SYMBOL voltage -1248 80 R0
WINDOW 0 36 45 Left 2
WINDOW 3 -276 62 Left 2
WINDOW 123 0 0 Left 2
WINDOW 39 0 0 Left 2
SYMATTR InstName V2
SYMATTR Value SINE(0 0.003 80000k)
SYMBOL cap 96 32 R90
WINDOW 0 0 32 VBottom 2
WINDOW 3 32 32 VTop 2
SYMATTR InstName C2
SYMATTR Value 100n
SYMBOL res 48 32 R90
WINDOW 0 0 56 VBottom 2
WINDOW 3 32 56 VTop 2
SYMATTR InstName R4
SYMATTR Value 100
SYMBOL voltage -1248 -16 R0
WINDOW 3 -271 73 Left 2
WINDOW 123 -271 101 Left 2
WINDOW 39 0 0 Left 2
SYMATTR Value SINE(0 0.003 81000k)
SYMATTR Value2 AC 2
SYMATTR InstName V3
SYMBOL 2sc3357 208 0 R0
SYMATTR InstName U1
SYMBOL res -368 -160 R0
SYMATTR InstName R6
SYMATTR Value 22k
SYMBOL cap -256 -64 R90
WINDOW 0 0 32 VBottom 2
WINDOW 3 32 32 VTop 2
SYMATTR InstName C3
SYMATTR Value 100n
SYMBOL res -160 -64 R90
WINDOW 0 0 56 VBottom 2
WINDOW 3 32 56 VTop 2
SYMATTR InstName R7
SYMATTR Value 470
SYMBOL cap -336 32 R90
WINDOW 0 0 32 VBottom 2
WINDOW 3 32 32 VTop 2
SYMATTR InstName C4
SYMATTR Value 100n
SYMBOL 2sc3357 -224 0 R0
WINDOW 3 -5 114 Left 2
SYMATTR InstName U2
SYMBOL 2sc3357 -624 16 R0
WINDOW 3 -5 114 Left 2
SYMATTR InstName U3
SYMBOL res -720 -176 R0
SYMATTR InstName R5
SYMATTR Value 22k
SYMBOL cap -704 32 R90
WINDOW 0 0 32 VBottom 2
WINDOW 3 32 32 VTop 2
SYMATTR InstName C5
SYMATTR Value 100n
SYMBOL res -544 -64 R90
WINDOW 0 0 56 VBottom 2
WINDOW 3 32 56 VTop 2
SYMATTR InstName R10
SYMATTR Value 470
SYMBOL cap -640 -64 R90
WINDOW 0 0 32 VBottom 2
WINDOW 3 32 32 VTop 2
SYMATTR InstName C6
SYMATTR Value 100n
SYMBOL res -384 -16 R90
WINDOW 0 0 56 VBottom 2
WINDOW 3 32 56 VTop 2
SYMATTR InstName R8
SYMATTR Value 100
SYMBOL res -1088 -16 R90
WINDOW 0 0 56 VBottom 2
WINDOW 3 32 56 VTop 2
SYMATTR InstName R12
SYMATTR Value 100
SYMBOL res -576 -176 R0
SYMATTR InstName R9
SYMATTR Value 100
SYMBOL res -176 -208 R0
SYMATTR InstName R11
SYMATTR Value 100
TEXT -104 288 Left 2 !.inc C:\\Program Files\\LTC\\LTspiceIV\\lib\\sub\\2sc3357.sub
TEXT -408 312 Left 2 !.tran 0 20u 0 100p
TEXT -112 248 Left 2 !.inc C:\\Program Files\\LTC\\LTspiceIV\\lib\\sub\\bfg591.sub
TEXT -976 296 Left 2 !;ac oct 10 1000k 500000k
