Version 4
SHEET 1 880 680
WIRE -128 -176 -256 -176
WIRE 64 -176 -128 -176
WIRE 192 -176 64 -176
WIRE 352 -176 192 -176
WIRE 480 -176 352 -176
WIRE 736 -176 480 -176
WIRE -256 -144 -256 -176
WIRE -128 -144 -128 -176
WIRE 64 -144 64 -176
WIRE 192 -144 192 -176
WIRE 352 -144 352 -176
WIRE 480 -144 480 -176
WIRE -240 -48 -256 -48
WIRE -128 -48 -128 -64
WIRE -128 -48 -160 -48
WIRE 80 -48 64 -48
WIRE 192 -48 192 -64
WIRE 192 -48 160 -48
WIRE 368 -48 352 -48
WIRE 480 -48 480 -64
WIRE 480 -48 448 -48
WIRE -128 -32 -128 -48
WIRE -64 -32 -128 -32
WIRE 64 -32 64 -48
WIRE 64 -32 0 -32
WIRE 192 -32 192 -48
WIRE 240 -32 192 -32
WIRE 352 -32 352 -48
WIRE 352 -32 304 -32
WIRE 192 -16 192 -32
WIRE 480 -16 480 -48
WIRE -672 0 -704 0
WIRE -592 0 -608 0
WIRE -400 0 -512 0
WIRE -256 0 -256 -48
WIRE -256 0 -320 0
WIRE -704 32 -704 0
WIRE -256 32 -256 0
WIRE -128 32 -128 -32
WIRE 64 32 64 -32
WIRE 128 32 64 32
WIRE 352 32 352 -32
WIRE 416 32 352 32
WIRE -320 48 -320 32
WIRE -208 48 -208 32
WIRE -208 48 -320 48
WIRE -128 64 -128 32
WIRE 64 64 64 32
WIRE 352 64 352 32
WIRE 736 64 736 -176
WIRE -256 112 -256 32
WIRE -192 112 -256 112
WIRE 192 112 192 80
WIRE 480 112 480 80
WIRE -544 192 -544 144
WIRE -544 192 -704 192
WIRE -256 192 -256 144
WIRE -256 192 -544 192
WIRE -128 192 -128 160
WIRE -128 192 -256 192
WIRE 64 192 64 144
WIRE 64 192 -128 192
WIRE 192 192 64 192
WIRE 352 192 352 144
WIRE 352 192 192 192
WIRE 480 192 352 192
WIRE 736 192 736 144
WIRE 736 192 480 192
FLAG 736 192 0
SYMBOL 2sc3357 416 -16 R0
SYMATTR InstName U1
SYMBOL voltage 736 48 R0
WINDOW 123 0 0 Left 2
WINDOW 39 0 0 Left 2
SYMATTR InstName V1
SYMATTR Value 5
SYMBOL res 464 -160 R0
SYMATTR InstName R1
SYMATTR Value 100
SYMBOL voltage -704 96 R0
WINDOW 0 -75 56 Left 2
WINDOW 3 -218 107 Left 2
WINDOW 123 -218 135 Left 2
WINDOW 39 0 0 Left 2
SYMATTR InstName V2
SYMATTR Value SINE(0 0.0015 79.9e6)
SYMATTR Value2 AC 2
SYMBOL res 336 48 R0
SYMATTR InstName R4
SYMATTR Value 680
SYMBOL res 464 96 R0
SYMATTR InstName R2
SYMATTR Value 10
SYMBOL res -496 -16 R90
WINDOW 0 0 56 VBottom 2
WINDOW 3 32 56 VTop 2
SYMATTR InstName R5
SYMATTR Value 50
SYMBOL voltage -704 16 R0
WINDOW 0 -75 56 Left 2
WINDOW 3 -240 84 Left 2
WINDOW 123 -190 51 Left 2
WINDOW 39 0 0 Left 2
SYMATTR InstName V3
SYMATTR Value SINE(0 0.0015 70e6)
SYMBOL cap -608 -16 R90
WINDOW 0 0 32 VBottom 2
WINDOW 3 32 32 VTop 2
SYMATTR InstName C2
SYMATTR Value 100n
SYMBOL res 464 -64 R90
WINDOW 0 0 56 VBottom 2
WINDOW 3 32 56 VTop 2
SYMATTR InstName R3
SYMATTR Value 680
SYMBOL 2sc3357 128 -16 R0
SYMATTR InstName U2
SYMBOL res 176 -160 R0
SYMATTR InstName R6
SYMATTR Value 100
SYMBOL res 48 48 R0
SYMATTR InstName R7
SYMATTR Value 1k
SYMBOL res 176 96 R0
SYMATTR InstName R8
SYMATTR Value 15
SYMBOL res 176 -64 R90
WINDOW 0 0 56 VBottom 2
WINDOW 3 32 56 VTop 2
SYMATTR InstName R9
SYMATTR Value 2.2k
SYMBOL 2sc3357 -192 64 R0
SYMATTR InstName U3
SYMBOL res -144 -160 R0
SYMATTR InstName R10
SYMATTR Value 100
SYMBOL res -144 -64 R90
WINDOW 0 0 56 VBottom 2
WINDOW 3 32 56 VTop 2
SYMATTR InstName R13
SYMATTR Value 22k
SYMBOL cap 0 -48 R90
WINDOW 0 0 32 VBottom 2
WINDOW 3 32 32 VTop 2
SYMATTR InstName C1
SYMATTR Value 10µ
SYMBOL cap 304 -48 R90
WINDOW 0 0 32 VBottom 2
WINDOW 3 32 32 VTop 2
SYMATTR InstName C3
SYMATTR Value 10µ
SYMBOL cap -256 16 R90
WINDOW 0 0 32 VBottom 2
WINDOW 3 32 32 VTop 2
SYMATTR InstName C4
SYMATTR Value 1µ
SYMBOL res -112 16 R90
WINDOW 0 0 56 VBottom 2
WINDOW 3 32 56 VTop 2
SYMATTR InstName R11
SYMATTR Value 470
SYMBOL res -304 -16 R90
WINDOW 0 0 56 VBottom 2
WINDOW 3 32 56 VTop 2
SYMATTR InstName R12
SYMATTR Value 22
TEXT 120 240 Left 2 !.inc C:\\Program Files\\LTC\\LTspiceIV\\lib\\sub\\2sc3357.sub
TEXT 296 296 Left 2 !.ac oct 10 100 1000000k
TEXT -16 320 Left 2 !;tran 0 20u 0 50p
